@<TRIPOS>MOLECULE
2d
42   45    1
SMALL
USER_CHARGES


@<TRIPOS>ATOM
      1 O1         69.1935   39.4818   69.8082 O.3       1 UNK        -0.5850 
      2 C2         69.0702   38.1781   70.1729 C.ar      1 UNK         0.1500 
      3 C3         67.9340   37.4601   69.7686 C.ar      1 UNK        -0.1150 
      4 C4         67.7711   36.1255   70.1643 C.ar      1 UNK        -0.1150 
      5 C5         68.7642   35.4857   70.9406 C.ar      1 UNK        -0.0418 
      6 C6         68.6100   34.0255   71.3279 C.3       1 UNK         0.2118 
      7 O7         67.4803   33.4781   70.6711 O.3       1 UNK        -0.2850 
      8 C8         67.2106   32.1629   70.9100 C.ar      1 UNK         0.0850 
      9 C9         66.5402   31.4531   69.8999 C.ar      1 UNK        -0.1150 
     10 C10        66.2053   30.1067   70.0945 C.ar      1 UNK        -0.1150 
     11 C11        66.5043   29.4781   71.3149 C.ar      1 UNK         0.1500 
     12 O12        66.1233   28.1842   71.4967 O.3       1 UNK        -0.5850 
     13 C13        67.1781   30.1853   72.3316 C.ar      1 UNK        -0.1150 
     14 C14        67.5479   31.5335   72.1307 C.ar      1 UNK        -0.1150 
     15 C15        68.2565   32.3181   73.2325 C.3       1 UNK         0.0550 
     16 C16        67.4396   32.3619   74.5403 C.3       1 UNK        -0.1200 
     17 C17        67.2540   33.8416   74.8942 C.3       1 UNK         0.0286 
     18 C18        65.9294   34.1680   75.6082 C.3       1 UNK         0.5114 
     19 F19        64.8807   33.8361   74.8545 F         1 UNK        -0.2000 
     20 F20        65.8644   33.4989   76.7589 F         1 UNK        -0.2000 
     21 F21        65.8741   35.4729   75.8737 F         1 UNK        -0.2000 
     22 C22        67.4314   34.5855   73.5720 C.3       1 UNK        -0.1200 
     23 C23        68.5250   33.7907   72.8517 C.3       1 UNK        -0.0600 
     24 C24        69.9139   36.2038   71.3259 C.ar      1 UNK        -0.1150 
     25 C25        70.0624   37.5518   70.9524 C.ar      1 UNK        -0.1150 
     26 H26        69.9847   39.8852   70.1305 H         1 UNK         0.4350 
     27 H27        67.1851   37.9343   69.1511 H         1 UNK         0.1150 
     28 H28        66.8814   35.5875   69.8714 H         1 UNK         0.1150 
     29 H29        69.5011   33.5093   70.9649 H         1 UNK         0.0300 
     30 H30        66.2967   31.9437   68.9690 H         1 UNK         0.1150 
     31 H31        65.7193   29.5534   69.3042 H         1 UNK         0.1150 
     32 H32        66.3600   27.8417   72.3448 H         1 UNK         0.4350 
     33 H33        67.3983   29.7008   73.2718 H         1 UNK         0.1150 
     34 H34        69.2132   31.8276   73.4184 H         1 UNK         0.0600 
     35 H35        66.4557   31.9200   74.3758 H         1 UNK         0.0600 
     36 H36        67.9118   31.7985   75.3456 H         1 UNK         0.0600 
     37 H37        68.0790   34.1377   75.5444 H         1 UNK         0.0600 
     38 H38        66.5042   34.5545   72.9980 H         1 UNK         0.0600 
     39 H39        67.6985   35.6329   73.7168 H         1 UNK         0.0600 
     40 H40        69.4838   34.0771   73.2875 H         1 UNK         0.0600 
     41 H41        70.6892   35.7244   71.9053 H         1 UNK         0.1150 
     42 H42        70.9389   38.1011   71.2634 H         1 UNK         0.1150 
@<TRIPOS>BOND
     1    1    2 1    
     2    1   26 1    
     3    2   25 ar   
     4    2    3 ar   
     5    3    4 ar   
     6    3   27 1    
     7    4    5 ar   
     8    4   28 1    
     9    5    6 1    
    10    5   24 ar   
    11    6   23 1    
    12    6    7 1    
    13    6   29 1    
    14    7    8 1    
    15    8   14 ar   
    16    8    9 ar   
    17    9   10 ar   
    18    9   30 1    
    19   10   11 ar   
    20   10   31 1    
    21   11   12 1    
    22   11   13 ar   
    23   12   32 1    
    24   13   14 ar   
    25   13   33 1    
    26   14   15 1    
    27   15   23 1    
    28   15   16 1    
    29   15   34 1    
    30   16   17 1    
    31   16   35 1    
    32   16   36 1    
    33   17   18 1    
    34   17   22 1    
    35   17   37 1    
    36   18   19 1    
    37   18   20 1    
    38   18   21 1    
    39   22   23 1    
    40   22   38 1    
    41   22   39 1    
    42   23   40 1    
    43   24   25 ar   
    44   24   41 1    
    45   25   42 1    
@<TRIPOS>SUBSTRUCTURE
     1 UNK         1 GROUP             0       ****    0 ROOT    
