@<TRIPOS>MOLECULE
2e
42   45    1
SMALL
USER_CHARGES


@<TRIPOS>ATOM
      1 C1         65.9485   34.1216   75.5778 C.3       1 UNK        -0.1800 
      2 C2         67.2540   33.8416   74.8942 C.3       1 UNK        -0.0600 
      3 C3         67.4396   32.3619   74.5403 C.3       1 UNK        -0.1200 
      4 C4         68.2565   32.3181   73.2325 C.3       1 UNK         0.0550 
      5 C5         67.5479   31.5335   72.1307 C.ar      1 UNK        -0.1150 
      6 C6         67.1781   30.1853   72.3316 C.ar      1 UNK        -0.1150 
      7 C7         66.5043   29.4781   71.3149 C.ar      1 UNK         0.1500 
      8 O8         66.1233   28.1842   71.4967 O.3       1 UNK        -0.5850 
      9 C9         66.2053   30.1067   70.0945 C.ar      1 UNK        -0.1150 
     10 C10        66.5402   31.4531   69.8999 C.ar      1 UNK        -0.1150 
     11 C11        67.2106   32.1629   70.9100 C.ar      1 UNK         0.0850 
     12 O12        67.4803   33.4781   70.6711 O.3       1 UNK        -0.2850 
     13 C13        68.6100   34.0255   71.3279 C.3       1 UNK         0.2118 
     14 C14        68.7642   35.4857   70.9406 C.ar      1 UNK        -0.0418 
     15 C15        69.9139   36.2038   71.3259 C.ar      1 UNK        -0.1150 
     16 C16        70.0624   37.5518   70.9524 C.ar      1 UNK        -0.1150 
     17 C17        69.0702   38.1781   70.1729 C.ar      1 UNK         0.1500 
     18 O18        69.1935   39.4818   69.8082 O.3       1 UNK        -0.5850 
     19 C19        67.9340   37.4601   69.7686 C.ar      1 UNK        -0.1150 
     20 C20        67.7711   36.1255   70.1643 C.ar      1 UNK        -0.1150 
     21 C21        68.5250   33.7907   72.8517 C.3       1 UNK        -0.0600 
     22 C22        67.4314   34.5855   73.5720 C.3       1 UNK        -0.1200 
     23 H23        65.1076   33.8481   74.9400 H         1 UNK         0.0600 
     24 H24        65.8628   33.5513   76.5030 H         1 UNK         0.0600 
     25 H25        65.8476   35.1783   75.8277 H         1 UNK         0.0600 
     26 H26        68.0691   34.1272   75.5611 H         1 UNK         0.0600 
     27 H27        67.9140   31.7921   75.3399 H         1 UNK         0.0600 
     28 H28        66.4572   31.9179   74.3697 H         1 UNK         0.0600 
     29 H29        69.2151   31.8318   73.4196 H         1 UNK         0.0600 
     30 H30        67.3977   29.6997   73.2715 H         1 UNK         0.1150 
     31 H31        66.6307   27.7358   72.1556 H         1 UNK         0.4350 
     32 H32        65.7193   29.5568   69.3020 H         1 UNK         0.1150 
     33 H33        66.2939   31.9379   68.9668 H         1 UNK         0.1150 
     34 H34        69.4803   33.4888   70.9447 H         1 UNK         0.0300 
     35 H35        70.6891   35.7243   71.9053 H         1 UNK         0.1150 
     36 H36        70.9398   38.0992   71.2645 H         1 UNK         0.1150 
     37 H37        69.9847   39.8852   70.1306 H         1 UNK         0.4350 
     38 H38        67.1851   37.9342   69.1511 H         1 UNK         0.1150 
     39 H39        66.8817   35.5867   69.8717 H         1 UNK         0.1150 
     40 H40        69.4829   34.0722   73.2925 H         1 UNK         0.0600 
     41 H41        66.5036   34.5531   72.9984 H         1 UNK         0.0600 
     42 H42        67.6984   35.6331   73.7161 H         1 UNK         0.0600 
@<TRIPOS>BOND
     1    1    2 1    
     2    1   23 1    
     3    1   24 1    
     4    1   25 1    
     5    2   22 1    
     6    2    3 1    
     7    2   26 1    
     8    3    4 1    
     9    3   27 1    
    10    3   28 1    
    11    4   21 1    
    12    4    5 1    
    13    4   29 1    
    14    5   11 ar   
    15    5    6 ar   
    16    6    7 ar   
    17    6   30 1    
    18    7    8 1    
    19    7    9 ar   
    20    8   31 1    
    21    9   10 ar   
    22    9   32 1    
    23   10   11 ar   
    24   10   33 1    
    25   11   12 1    
    26   12   13 1    
    27   13   14 1    
    28   13   21 1    
    29   13   34 1    
    30   14   20 ar   
    31   14   15 ar   
    32   15   16 ar   
    33   15   35 1    
    34   16   17 ar   
    35   16   36 1    
    36   17   18 1    
    37   17   19 ar   
    38   18   37 1    
    39   19   20 ar   
    40   19   38 1    
    41   20   39 1    
    42   21   22 1    
    43   21   40 1    
    44   22   41 1    
    45   22   42 1    
@<TRIPOS>SUBSTRUCTURE
     1 UNK         1 GROUP             0       ****    0 ROOT    
