@<TRIPOS>MOLECULE
3a
41   44    1
SMALL
USER_CHARGES


@<TRIPOS>ATOM
      1 O1         68.3709   33.0400   76.6908 O.2       1 UNK        -0.4700 
      2 C2         67.8626   33.2787   75.5977 C.2       1 UNK         0.4700 
      3 C3         67.5146   34.6506   75.0213 C.3       1 UNK        -0.1200 
      4 C4         67.5264   34.7862   73.4980 C.3       1 UNK        -0.1200 
      5 C5         68.5250   33.7907   72.8517 C.3       1 UNK        -0.0600 
      6 C6         68.2565   32.3181   73.2325 C.3       1 UNK         0.0550 
      7 C7         67.5275   32.1666   74.5920 C.3       1 UNK        -0.1200 
      8 C8         67.5479   31.5335   72.1307 C.ar      1 UNK        -0.1150 
      9 C9         67.1781   30.1853   72.3316 C.ar      1 UNK        -0.1150 
     10 C10        66.5043   29.4781   71.3149 C.ar      1 UNK         0.1500 
     11 O11        66.1233   28.1842   71.4967 O.3       1 UNK        -0.5850 
     12 C12        66.2053   30.1067   70.0945 C.ar      1 UNK        -0.1150 
     13 C13        66.5402   31.4531   69.8999 C.ar      1 UNK        -0.1150 
     14 C14        67.2106   32.1629   70.9100 C.ar      1 UNK         0.0850 
     15 O15        67.4803   33.4781   70.6711 O.3       1 UNK        -0.2850 
     16 C16        68.6100   34.0255   71.3279 C.3       1 UNK         0.2118 
     17 C17        68.7642   35.4857   70.9406 C.ar      1 UNK        -0.0418 
     18 C18        67.7711   36.1255   70.1643 C.ar      1 UNK        -0.1150 
     19 C19        67.9340   37.4601   69.7686 C.ar      1 UNK        -0.1150 
     20 C20        69.0702   38.1781   70.1729 C.ar      1 UNK         0.1500 
     21 O21        69.1935   39.4818   69.8082 O.3       1 UNK        -0.5850 
     22 C22        70.0624   37.5518   70.9524 C.ar      1 UNK        -0.1150 
     23 C23        69.9139   36.2038   71.3259 C.ar      1 UNK        -0.1150 
     24 H24        66.5249   34.9549   75.3629 H         1 UNK         0.0600 
     25 H25        68.2277   35.3779   75.4096 H         1 UNK         0.0600 
     26 H26        66.5130   34.6280   73.1271 H         1 UNK         0.0600 
     27 H27        67.7785   35.8156   73.2430 H         1 UNK         0.0600 
     28 H28        69.5008   33.9693   73.3061 H         1 UNK         0.0600 
     29 H29        69.2274   31.8377   73.3614 H         1 UNK         0.0600 
     30 H30        67.8521   31.2301   75.0459 H         1 UNK         0.0600 
     31 H31        66.4500   32.0780   74.4650 H         1 UNK         0.0600 
     32 H32        67.4047   29.6808   73.2581 H         1 UNK         0.1150 
     33 H33        66.4317   27.8160   72.3103 H         1 UNK         0.4350 
     34 H34        65.7237   29.5565   69.2995 H         1 UNK         0.1150 
     35 H35        66.2880   31.9373   68.9680 H         1 UNK         0.1150 
     36 H36        69.4807   33.4926   70.9408 H         1 UNK         0.0300 
     37 H37        66.8772   35.5934   69.8737 H         1 UNK         0.1150 
     38 H38        67.1806   37.9309   69.1542 H         1 UNK         0.1150 
     39 H39        69.9852   39.8850   70.1297 H         1 UNK         0.4350 
     40 H40        70.9358   38.1057   71.2643 H         1 UNK         0.1150 
     41 H41        70.6839   35.7210   71.9097 H         1 UNK         0.1150 
@<TRIPOS>BOND
     1    1    2 2    
     2    2    7 1    
     3    2    3 1    
     4    3    4 1    
     5    3   24 1    
     6    3   25 1    
     7    4    5 1    
     8    4   26 1    
     9    4   27 1    
    10    5   16 1    
    11    5    6 1    
    12    5   28 1    
    13    6    7 1    
    14    6    8 1    
    15    6   29 1    
    16    7   30 1    
    17    7   31 1    
    18    8   14 ar   
    19    8    9 ar   
    20    9   10 ar   
    21    9   32 1    
    22   10   11 1    
    23   10   12 ar   
    24   11   33 1    
    25   12   13 ar   
    26   12   34 1    
    27   13   14 ar   
    28   13   35 1    
    29   14   15 1    
    30   15   16 1    
    31   16   17 1    
    32   16   36 1    
    33   17   23 ar   
    34   17   18 ar   
    35   18   19 ar   
    36   18   37 1    
    37   19   20 ar   
    38   19   38 1    
    39   20   21 1    
    40   20   22 ar   
    41   21   39 1    
    42   22   23 ar   
    43   22   40 1    
    44   23   41 1    
@<TRIPOS>SUBSTRUCTURE
     1 UNK         1 GROUP             0       ****    0 ROOT    
