@<TRIPOS>MOLECULE
3b
41   44    1
SMALL
USER_CHARGES


@<TRIPOS>ATOM
      1 O1         67.2383   35.6017   75.7487 O.2       1 UNK        -0.4700 
      2 C2         67.5146   34.6506   75.0213 C.2       1 UNK         0.4700 
      3 C3         67.8626   33.2787   75.5977 C.3       1 UNK        -0.1200 
      4 C4         67.5275   32.1666   74.5920 C.3       1 UNK        -0.1200 
      5 C5         68.2565   32.3181   73.2325 C.3       1 UNK         0.0550 
      6 C6         67.5479   31.5335   72.1307 C.ar      1 UNK        -0.1150 
      7 C7         67.1781   30.1853   72.3316 C.ar      1 UNK        -0.1150 
      8 C8         66.5043   29.4781   71.3149 C.ar      1 UNK         0.1500 
      9 O9         66.1233   28.1842   71.4967 O.3       1 UNK        -0.5850 
     10 C10        66.2053   30.1067   70.0945 C.ar      1 UNK        -0.1150 
     11 C11        66.5402   31.4531   69.8999 C.ar      1 UNK        -0.1150 
     12 C12        67.2106   32.1629   70.9100 C.ar      1 UNK         0.0850 
     13 O13        67.4803   33.4781   70.6711 O.3       1 UNK        -0.2850 
     14 C14        68.6100   34.0255   71.3279 C.3       1 UNK         0.2118 
     15 C15        68.7642   35.4857   70.9406 C.ar      1 UNK        -0.0418 
     16 C16        67.7711   36.1255   70.1643 C.ar      1 UNK        -0.1150 
     17 C17        67.9340   37.4601   69.7686 C.ar      1 UNK        -0.1150 
     18 C18        69.0702   38.1781   70.1729 C.ar      1 UNK         0.1500 
     19 O19        69.1935   39.4818   69.8082 O.3       1 UNK        -0.5850 
     20 C20        70.0624   37.5518   70.9524 C.ar      1 UNK        -0.1150 
     21 C21        69.9139   36.2038   71.3259 C.ar      1 UNK        -0.1150 
     22 C22        68.5250   33.7907   72.8517 C.3       1 UNK        -0.0600 
     23 C23        67.5264   34.7862   73.4980 C.3       1 UNK        -0.1200 
     24 H24        68.9235   33.2583   75.8477 H         1 UNK         0.0600 
     25 H25        67.3089   33.1288   76.5248 H         1 UNK         0.0600 
     26 H26        67.7421   31.1914   75.0298 H         1 UNK         0.0600 
     27 H27        66.4488   32.1852   74.4250 H         1 UNK         0.0600 
     28 H28        69.2346   31.8449   73.3319 H         1 UNK         0.0600 
     29 H29        67.3989   29.6953   73.2685 H         1 UNK         0.1150 
     30 H30        66.4956   27.7917   72.2713 H         1 UNK         0.4350 
     31 H31        65.7234   29.5561   69.2999 H         1 UNK         0.1150 
     32 H32        66.2958   31.9365   68.9655 H         1 UNK         0.1150 
     33 H33        69.4847   33.4956   70.9447 H         1 UNK         0.0300 
     34 H34        66.8768   35.5940   69.8736 H         1 UNK         0.1150 
     35 H35        67.1805   37.9309   69.1542 H         1 UNK         0.1150 
     36 H36        69.9730   39.8919   70.1502 H         1 UNK         0.4350 
     37 H37        70.9357   38.1057   71.2644 H         1 UNK         0.1150 
     38 H38        70.6838   35.7210   71.9100 H         1 UNK         0.1150 
     39 H39        69.5128   34.0383   73.2455 H         1 UNK         0.0600 
     40 H40        66.5186   34.6132   73.1199 H         1 UNK         0.0600 
     41 H41        67.7890   35.8148   73.2511 H         1 UNK         0.0600 
@<TRIPOS>BOND
     1    1    2 2    
     2    2   23 1    
     3    2    3 1    
     4    3    4 1    
     5    3   24 1    
     6    3   25 1    
     7    4    5 1    
     8    4   26 1    
     9    4   27 1    
    10    5   22 1    
    11    5    6 1    
    12    5   28 1    
    13    6   12 ar   
    14    6    7 ar   
    15    7    8 ar   
    16    7   29 1    
    17    8    9 1    
    18    8   10 ar   
    19    9   30 1    
    20   10   11 ar   
    21   10   31 1    
    22   11   12 ar   
    23   11   32 1    
    24   12   13 1    
    25   13   14 1    
    26   14   15 1    
    27   14   22 1    
    28   14   33 1    
    29   15   21 ar   
    30   15   16 ar   
    31   16   17 ar   
    32   16   34 1    
    33   17   18 ar   
    34   17   35 1    
    35   18   19 1    
    36   18   20 ar   
    37   19   36 1    
    38   20   21 ar   
    39   20   37 1    
    40   21   38 1    
    41   22   23 1    
    42   22   39 1    
    43   23   40 1    
    44   23   41 1    
@<TRIPOS>SUBSTRUCTURE
     1 UNK         1 GROUP             0       ****    0 ROOT    
