REMARK SMILES Cc1ccc(NC(=O)c2ccc(C[N@H+]3CC[N@@H+](C)CC3)cc2)cc1Nc1nccc(-c2cccnc2)n1
REMARK SMILES IDX 7 1 6 2 8 3 9 5 12 6 11 7 21 8 10 9 22 10 13 11 14 12 16 13
REMARK SMILES IDX 17 14 15 15 19 16 20 17 18 18 5 21 23 22 4 23 24 24 3 25
REMARK SMILES IDX 2 26 1 27 25 28 26 30 27 31 37 32 28 33 30 34 29 35 31 36
REMARK SMILES IDX 36 37 32 38 35 39 33 40 34 41
REMARK H PARENT 6 4 17 19 14 20 25 29
ROOT
ATOM      1  C   UNL     1      -0.052   1.350   0.157  1.00  0.00     0.255 C 
ATOM      2  N   UNL     1       0.758   0.720  -0.846  1.00  0.00    -0.322 N 
ATOM      3  O   UNL     1       0.353   2.400   0.727  1.00  0.00    -0.269 OA
ATOM      4  H   UNL     1       0.632  -0.305  -1.014  1.00  0.00     0.170 HD
ENDROOT
BRANCH   1   5
ATOM      5  C   UNL     1      -1.339   0.748   0.566  1.00  0.00     0.040 A 
ATOM      6  C   UNL     1      -3.795  -0.390   1.354  1.00  0.00     0.006 A 
ATOM      7  C   UNL     1      -3.008   0.315   2.280  1.00  0.00     0.010 A 
ATOM      8  C   UNL     1      -3.345  -0.519   0.030  1.00  0.00     0.010 A 
ATOM      9  C   UNL     1      -1.795   0.889   1.887  1.00  0.00     0.014 A 
ATOM     10  C   UNL     1      -2.123   0.038  -0.358  1.00  0.00     0.014 A 
BRANCH   6  11
ATOM     11  C   UNL     1      -5.112  -1.001   1.778  1.00  0.00     0.299 C 
BRANCH  11  12
ATOM     12  N   UNL     1      -6.121   0.027   2.145  1.00  0.00    -0.322 N 
ATOM     13  C   UNL     1      -8.229  -1.283   1.754  1.00  0.00     0.324 C 
ATOM     14  N   UNL     1      -8.624  -0.348   0.681  1.00  0.00    -0.328 N 
ATOM     15  C   UNL     1      -7.314  -0.583   2.778  1.00  0.00     0.324 C 
ATOM     16  C   UNL     1      -7.431   0.197   0.005  1.00  0.00     0.324 C 
ATOM     17  C   UNL     1      -6.509   0.905   1.013  1.00  0.00     0.324 C 
ATOM     18  C   UNL     1      -9.497  -1.024  -0.293  1.00  0.00     0.333 C 
ATOM     19  H   UNL     1      -9.167   0.445   1.104  1.00  0.00     0.348 HD
ATOM     20  H   UNL     1      -5.690   0.645   2.875  1.00  0.00     0.348 HD
ENDBRANCH  11  12
ENDBRANCH   6  11
ENDBRANCH   1   5
BRANCH   2  21
ATOM     21  C   UNL     1       1.821   1.393  -1.540  1.00  0.00     0.043 A 
ATOM     22  C   UNL     1       2.990   0.692  -1.865  1.00  0.00     0.052 A 
ATOM     23  C   UNL     1       1.683   2.725  -1.948  1.00  0.00     0.026 A 
ATOM     24  C   UNL     1       4.045   1.315  -2.564  1.00  0.00     0.046 A 
ATOM     25  C   UNL     1       2.709   3.356  -2.649  1.00  0.00     0.008 A 
ATOM     26  C   UNL     1       3.900   2.671  -2.953  1.00  0.00    -0.027 A 
ATOM     27  C   UNL     1       4.988   3.400  -3.700  1.00  0.00     0.046 C 
BRANCH  24  28
ATOM     28  N   UNL     1       5.256   0.587  -2.861  1.00  0.00    -0.324 N 
ATOM     29  H   UNL     1       5.989   1.015  -3.470  1.00  0.00     0.170 HD
BRANCH  28  30
ATOM     30  C   UNL     1       5.664  -0.565  -2.118  1.00  0.00     0.227 A 
ATOM     31  N   UNL     1       5.091  -1.774  -2.350  1.00  0.00    -0.221 NA
ATOM     32  N   UNL     1       6.641  -0.446  -1.182  1.00  0.00    -0.213 NA
ATOM     33  C   UNL     1       5.481  -2.874  -1.655  1.00  0.00     0.117 A 
ATOM     34  C   UNL     1       7.066  -1.514  -0.454  1.00  0.00     0.077 A 
ATOM     35  C   UNL     1       6.478  -2.769  -0.685  1.00  0.00     0.049 A 
BRANCH  34  36
ATOM     36  C   UNL     1       8.106  -1.317   0.586  1.00  0.00     0.019 A 
ATOM     37  C   UNL     1       8.229  -0.073   1.229  1.00  0.00     0.121 A 
ATOM     38  C   UNL     1       9.003  -2.341   0.945  1.00  0.00     0.013 A 
ATOM     39  N   UNL     1       9.181   0.121   2.181  1.00  0.00    -0.264 NA
ATOM     40  C   UNL     1       9.973  -2.113   1.926  1.00  0.00     0.021 A 
ATOM     41  C   UNL     1      10.046  -0.863   2.540  1.00  0.00     0.111 A 
ENDBRANCH  34  36
ENDBRANCH  28  30
ENDBRANCH  24  28
ENDBRANCH   2  21
TORSDOF 7
