REMARK SMILES Cc1ccc(NC(=O)c2ccc(C[N@H+]3CC[N@@H+](C)CC3)cc2)cc1Nc1nccc(-c2ccc[nH+]c2)n1
REMARK SMILES IDX 5 1 4 2 23 3 3 4 24 5 2 6 1 7 6 8 7 9 8 10 9 12 12 13 11 14
REMARK SMILES IDX 21 15 10 16 22 17 13 18 14 19 19 20 17 21 20 22 16 23 15 24
REMARK SMILES IDX 18 25 25 28 26 30 27 31 37 32 28 33 30 34 29 35 31 36 32 37
REMARK SMILES IDX 36 38 33 39 35 40 34 41
REMARK H PARENT 6 11 17 26 14 27 25 29 35 42
ROOT
ATOM      1  C   UNL     1      -3.357  -1.111   7.197  1.00  0.00     0.043 A 
ATOM      2  C   UNL     1      -3.732   0.203   7.517  1.00  0.00     0.026 A 
ATOM      3  C   UNL     1      -2.946  -1.971   8.219  1.00  0.00     0.052 A 
ATOM      4  C   UNL     1      -3.712   0.637   8.844  1.00  0.00     0.008 A 
ATOM      5  C   UNL     1      -2.900  -1.541   9.555  1.00  0.00     0.046 A 
ATOM      6  C   UNL     1      -3.301  -0.226   9.875  1.00  0.00    -0.027 A 
ATOM      7  C   UNL     1      -3.306   0.266  11.300  1.00  0.00     0.046 C 
ENDROOT
BRANCH   1   8
ATOM      8  N   UNL     1      -3.488  -1.617   5.857  1.00  0.00    -0.322 N 
ATOM      9  C   UNL     1      -3.307  -0.804   4.685  1.00  0.00     0.255 C 
ATOM     10  O   UNL     1      -2.517   0.175   4.721  1.00  0.00    -0.269 OA
ATOM     11  H   UNL     1      -3.673  -2.639   5.726  1.00  0.00     0.170 HD
BRANCH   9  12
ATOM     12  C   UNL     1      -4.053  -1.101   3.438  1.00  0.00     0.040 A 
ATOM     13  C   UNL     1      -5.541  -1.550   1.084  1.00  0.00     0.006 A 
ATOM     14  C   UNL     1      -5.995  -2.045   2.311  1.00  0.00     0.010 A 
ATOM     15  C   UNL     1      -4.312  -0.875   1.028  1.00  0.00     0.010 A 
ATOM     16  C   UNL     1      -5.269  -1.810   3.482  1.00  0.00     0.014 A 
ATOM     17  C   UNL     1      -3.576  -0.646   2.196  1.00  0.00     0.014 A 
BRANCH  13  18
ATOM     18  C   UNL     1      -6.380  -1.751  -0.164  1.00  0.00     0.299 C 
BRANCH  18  19
ATOM     19  N   UNL     1      -6.803  -0.474  -0.800  1.00  0.00    -0.322 N 
ATOM     20  C   UNL     1      -9.181  -0.703  -1.517  1.00  0.00     0.324 C 
ATOM     21  N   UNL     1      -9.572   0.652  -1.043  1.00  0.00    -0.328 N 
ATOM     22  C   UNL     1      -7.709  -0.734  -1.943  1.00  0.00     0.324 C 
ATOM     23  C   UNL     1      -8.471   1.401  -0.381  1.00  0.00     0.324 C 
ATOM     24  C   UNL     1      -7.369   0.491   0.192  1.00  0.00     0.324 C 
ATOM     25  C   UNL     1     -10.751   0.555  -0.167  1.00  0.00     0.333 C 
ATOM     26  H   UNL     1      -9.882   1.198  -1.890  1.00  0.00     0.348 HD
ATOM     27  H   UNL     1      -5.938  -0.038  -1.202  1.00  0.00     0.348 HD
ENDBRANCH  18  19
ENDBRANCH  13  18
ENDBRANCH   9  12
ENDBRANCH   1   8
BRANCH   5  28
ATOM     28  N   UNL     1      -2.449  -2.445  10.580  1.00  0.00    -0.324 N 
ATOM     29  H   UNL     1      -2.773  -2.325  11.568  1.00  0.00     0.170 HD
BRANCH  28  30
ATOM     30  C   UNL     1      -1.272  -3.230  10.380  1.00  0.00     0.227 A 
ATOM     31  N   UNL     1      -1.360  -4.465   9.818  1.00  0.00    -0.221 NA
ATOM     32  N   UNL     1      -0.058  -2.722  10.705  1.00  0.00    -0.213 NA
ATOM     33  C   UNL     1      -0.244  -5.203   9.583  1.00  0.00     0.117 A 
ATOM     34  C   UNL     1       1.095  -3.421  10.497  1.00  0.00     0.082 A 
ATOM     35  C   UNL     1       1.012  -4.696   9.914  1.00  0.00     0.049 A 
BRANCH  34  36
ATOM     36  C   UNL     1       2.400  -2.808  10.873  1.00  0.00     0.064 A 
ATOM     37  C   UNL     1       3.536  -3.592  11.146  1.00  0.00     0.023 A 
ATOM     38  C   UNL     1       2.522  -1.409  10.983  1.00  0.00     0.316 A 
ATOM     39  C   UNL     1       4.741  -2.982  11.495  1.00  0.00     0.071 A 
ATOM     40  N   UNL     1       3.711  -0.838  11.325  1.00  0.00    -0.217 N 
ATOM     41  C   UNL     1       4.813  -1.592  11.576  1.00  0.00     0.306 A 
ATOM     42  H   UNL     1       3.781   0.203  11.386  1.00  0.00     0.453 HD
ENDBRANCH  34  36
ENDBRANCH  28  30
ENDBRANCH   5  28
TORSDOF 7
